-------------------------------------------------------
          Amber 16 PMEMD                              2016
          -------------------------------------------------------

  [-O]verwriting output

File Assignments:

 Here is the input file:

CpH Equilibration without solute restrictions
&cntrl
imin = 0,                           ! No Minimization
nmropt = 0,                         ! No NMR restraints read

! Nature and format of the input
ntx = 5,                            ! Coordinates and velocities will be read
irest = 1,                          ! Do not run a new simulation

! Nature and format of the output
ntxo = 1,                           ! rstrt file in ASCII format
ntpr = 500,                         ! inf in output every ntpr steps
ntwr = 500,                         ! rstrt file every ntwr steps
ntwx = 500,                         ! mdcrd file every ntwx steps
ntwv = 0,                           ! mdvel without velocities
ntwe = 0,                           ! Energies and temperatures not written in
idecomp = 0,                        ! No energy decomposition
iwrap = 1,                          ! Coordinates of the restart and mdcrd file

! Frozen or restrained atoms
ibelly = 0,                         ! No frozen atoms
ntr=0,                              ! Harmonic potential restraints

! Molecular dynamics
nstlim = 2500000,                   ! Number of MD-steps
dt = 0.002,                         ! Time step

! Temperature regulation
ntt = 3,                            ! Langevin thermostat
gamma_ln = 2,                       ! Gamma constant for Langevin
temp0 = 300.0,                      ! Reference T at which the system is to be
tempi = 300.0,                      ! Initial T
ig = -1,                            ! Seed for the RNG

! P and V regulation
ntp = 1,                            ! constant P
barostat = 1,                       ! Berendsen barostat
taup = 1,                           ! Pressure relaxation time
ntb = 2,                            ! Periodic box for constant P

! SHAKE variables
ntc = 2,                            ! Bonds involving H are constrained
ntf = 2,                            ! Bond interaction involving H are ommited.

cut = 9.0,                          ! Nonbonded cutoff

! CpH variables
icnstph = 2,
solvph = 5.0,
ntcnstph = 100,
ntrelax = 200,
saltcon = 0.1,
/
&end

Note: ig = -1. Setting random seed to   117799 based on wallclock time in
      microseconds.

--------------------------------------------------------------------------------
   1.  RESOURCE   USE:
--------------------------------------------------------------------------------

 getting new box info from bottom of inpcrd
 NATOM  =   14918 NTYPES =      18 NBONH =   13963 MBONA  =     963
 NTHETH =    2368 MTHETA =    1293 NPHIH =    4530 MPHIA  =    3267
 NHPARM =       0 NPARM  =       0 NNB   =   28295 NRES   =    4423
 NBONA  =     963 NTHETA =    1293 NPHIA =    3267 NUMBND =      49
 NUMANG =     102 NPTRA  =      43 NATYP =      33 NPHB   =       1
 IFBOX  =       2 NMXRS  =      26 IFCAP =       0 NEXTRA =       0
 NCOPY  =       0

 Implicit solvent radii are H(N)-modified Bondi radii (mbondi2)

     BOX TYPE: TRUNCATED OCTAHEDRON

--------------------------------------------------------------------------------
   2.  CONTROL  DATA  FOR  THE  RUN
--------------------------------------------------------------------------------

default_name

General flags:
     imin    =       0, nmropt  =       0

Nature and format of input:
     ntx     =       5, irest   =       1, ntrx    =       1

Nature and format of output:
     ntxo    =       1, ntpr    =     500, ntrx    =       1, ntwr    =     500
     iwrap   =       1, ntwx    =     500, ntwv    =       0, ntwe    =       0
     ioutfm  =       1, ntwprt  =       0, idecomp =       0, rbornstat=      0

Potential function:
     ntf     =       2, ntb     =       2, igb     =       0, nsnb    =      25
     ipol    =       0, gbsa    =       0, iesp    =       0
     dielc   =   1.00000, cut     =   9.00000, intdiel =   1.00000
     saltcon =   0.10000, offset  =   0.09000, gbalpha=    0.80000
     gbbeta  =   0.00000, gbgamma =   2.90912, surften =   0.00500
     rdt     =   0.00000, rgbmax  =  25.00000  extdiel =  78.50000
     alpb  =        0

Frozen or restrained atoms:
     ibelly  =       0, ntr     =       0

Molecular dynamics:
     nstlim  =   2500000, nscm    =      1000, nrespa  =         1
     t       =   0.00000, dt      =   0.00200, vlimit  =  -1.00000

Langevin dynamics temperature regulation:
     ig      =  117799
     temp0   = 300.00000, tempi   = 300.00000, gamma_ln=   2.00000

Pressure regulation:
     ntp     =       1
     pres0   =   1.00000, comp    =  44.60000, taup    =   1.00000

SHAKE:
     ntc     =       2, jfastw  =       0
     tol     =   0.00001

Constant pH options:
     icnstph =       2
     ntcnstph =     100
     solvph =   5.00000
     ntrelax =     200 mccycles =       1

Ewald parameters:
     verbose =       0, ew_type =       0, nbflag  =       1, use_pme =       1
     vdwmeth =       1, eedmeth =       1, netfrc  =       1
     Box X =   57.620   Box Y =   57.620   Box Z =   57.620
     Alpha =  109.471   Beta  =  109.471   Gamma =  109.471
     NFFT1 =   64       NFFT2 =   64       NFFT3 =   64
     Cutoff=    9.000   Tol   =0.100E-04
     Ewald Coefficient =  0.30768
     Interpolation order =    4

--------------------------------------------------------------------------------
   3.  ATOMIC COORDINATES AND VELOCITIES
--------------------------------------------------------------------------------

default_name
 begin time read from input coords =  5000.000 ps

 Number of triangulated 3-point waters found:     4302

     Sum of charges from parm topology file =   0.00000093
     Forcing neutrality...

--------------------------------------------------------------------------------
   4.  RESULTS
 NSTEP =      500   TIME(PS) =    5001.000  TEMP(K) =   304.32  PRESS =    42.7
 Etot   =    -35250.0668  EKtot   =      9310.2314  EPtot      =    -44560.2983
 BOND   =       377.0773  ANGLE   =      1071.0474  DIHED      =      1350.8803
 1-4 NB =       454.5510  1-4 EEL =      5779.3238  VDWAALS    =      4911.3081
 EELEC  =    -58504.4862  EHBOND  =         0.0000  RESTRAINT  =         0.0000
 EKCMT  =      3976.2239  VIRIAL  =      3840.0092  VOLUME     =    147897.6502
                                                    Density    =         1.0249
 ------------------------------------------------------------------------------

      A V E R A G E S   O V E R    5000 S T E P S

 NSTEP =  2500000   TIME(PS) =   10000.000  TEMP(K) =   300.74  PRESS =    -5.0
 Etot   =    -35312.7753  EKtot   =      9200.6479  EPtot      =    -44513.4231
 BOND   =       358.4737  ANGLE   =      1079.5389  DIHED      =      1361.4367
 1-4 NB =       445.6925  1-4 EEL =      5670.5654  VDWAALS    =      4863.7443
 EELEC  =    -58292.8747  EHBOND  =         0.0000  RESTRAINT  =         0.0000
 EKCMT  =      3871.3563  VIRIAL  =      3887.2695  VOLUME     =    148110.3517
                                                    Density    =         1.0234
 ------------------------------------------------------------------------------

      R M S  F L U C T U A T I O N S

 NSTEP =  2500000   TIME(PS) =   10000.000  TEMP(K) =     2.45  PRESS =   177.5
 Etot   =       138.2002  EKtot   =        74.9144  EPtot      =       111.6661
 BOND   =        15.6286  ANGLE   =        25.4021  DIHED      =        14.1524
 1-4 NB =         9.1186  1-4 EEL =        69.6191  VDWAALS    =        91.8086
 EELEC  =       177.2055  EHBOND  =         0.0000  RESTRAINT  =         0.0000
 EKCMT  =        49.0938  VIRIAL  =       569.9126  VOLUME     =       341.4352
                                                    Density    =         0.0024
 ------------------------------------------------------------------------------
