-------------------------------------------------------
          Amber 16 PMEMD                              2016
          -------------------------------------------------------

  [-O]verwriting output

File Assignments:

 Here is the input file:

CpH Equilibration without solute restrictions
&cntrl
imin = 0,                           ! No Minimization
nmropt = 0,                         ! No NMR restraints read

! Nature and format of the input
ntx = 5,                            ! Coordinates and velocities will be read
irest = 1,                          ! Do not run a new simulation

! Nature and format of the output
ntxo = 1,                           ! rstrt file in ASCII format
ntpr = 500,                         ! inf in output every ntpr steps
ntwr = 500,                         ! rstrt file every ntwr steps
ntwx = 500,                         ! mdcrd file every ntwx steps
ntwv = 0,                           ! mdvel without velocities
ntwe = 0,                           ! Energies and temperatures not written in
idecomp = 0,                        ! No energy decomposition
iwrap = 1,                          ! Coordinates of the restart and mdcrd file

! Frozen or restrained atoms
ibelly = 0,                         ! No frozen atoms
ntr=0,                              ! Harmonic potential restraints

! Molecular dynamics
nstlim = 2500000,                   ! Number of MD-steps
dt = 0.002,                         ! Time step

! Temperature regulation
ntt = 3,                            ! Langevin thermostat
gamma_ln = 2,                       ! Gamma constant for Langevin
temp0 = 300.0,                      ! Reference T at which the system is to be
tempi = 300.0,                      ! Initial T
ig = -1,                            ! Seed for the RNG

! P and V regulation
ntp = 1,                            ! constant P
barostat = 1,                       ! Berendsen barostat
taup = 1,                           ! Pressure relaxation time
ntb = 2,                            ! Periodic box for constant P

! SHAKE variables
ntc = 2,                            ! Bonds involving H are constrained
ntf = 2,                            ! Bond interaction involving H are ommited.

cut = 9.0,                          ! Nonbonded cutoff

! CpH variables
icnstph = 2,
solvph = 3.5,
ntcnstph = 100,
ntrelax = 200,
saltcon = 0.1,
/
&end

Note: ig = -1. Setting random seed to   135083 based on wallclock time in
      microseconds.

--------------------------------------------------------------------------------
   1.  RESOURCE   USE:
--------------------------------------------------------------------------------

 getting new box info from bottom of inpcrd
 NATOM  =   14797 NTYPES =      17 NBONH =   13853 MBONA  =     953
 NTHETH =    2337 MTHETA =    1282 NPHIH =    4475 MPHIA  =    3254
 NHPARM =       0 NPARM  =       0 NNB   =   28051 NRES   =    4390
 NBONA  =     953 NTHETA =    1282 NPHIA =    3254 NUMBND =      42
 NUMANG =      92 NPTRA  =      39 NATYP =      28 NPHB   =       1
 IFBOX  =       2 NMXRS  =      24 IFCAP =       0 NEXTRA =       0
 NCOPY  =       0

 Implicit solvent radii are H(N)-modified Bondi radii (mbondi2)

     BOX TYPE: TRUNCATED OCTAHEDRON

--------------------------------------------------------------------------------
   2.  CONTROL  DATA  FOR  THE  RUN
--------------------------------------------------------------------------------

default_name

General flags:
     imin    =       0, nmropt  =       0

Nature and format of input:
     ntx     =       5, irest   =       1, ntrx    =       1

Nature and format of output:
     ntxo    =       1, ntpr    =     500, ntrx    =       1, ntwr    =     500
     iwrap   =       1, ntwx    =     500, ntwv    =       0, ntwe    =       0
     ioutfm  =       1, ntwprt  =       0, idecomp =       0, rbornstat=      0

Potential function:
     ntf     =       2, ntb     =       2, igb     =       0, nsnb    =      25
     ipol    =       0, gbsa    =       0, iesp    =       0
     dielc   =   1.00000, cut     =   9.00000, intdiel =   1.00000
     saltcon =   0.10000, offset  =   0.09000, gbalpha=    0.80000
     gbbeta  =   0.00000, gbgamma =   2.90912, surften =   0.00500
     rdt     =   0.00000, rgbmax  =  25.00000  extdiel =  78.50000
     alpb  =        0

Frozen or restrained atoms:
     ibelly  =       0, ntr     =       0

Molecular dynamics:
     nstlim  =   2500000, nscm    =      1000, nrespa  =         1
     t       =   0.00000, dt      =   0.00200, vlimit  =  -1.00000

Langevin dynamics temperature regulation:
     ig      =  135083
     temp0   = 300.00000, tempi   = 300.00000, gamma_ln=   2.00000

Pressure regulation:
     ntp     =       1
     pres0   =   1.00000, comp    =  44.60000, taup    =   1.00000

SHAKE:
     ntc     =       2, jfastw  =       0
     tol     =   0.00001

Constant pH options:
     icnstph =       2
     ntcnstph =     100
     solvph =   3.50000
     ntrelax =     200 mccycles =       1

Ewald parameters:
     verbose =       0, ew_type =       0, nbflag  =       1, use_pme =       1
     vdwmeth =       1, eedmeth =       1, netfrc  =       1
     Box X =   57.494   Box Y =   57.494   Box Z =   57.494
     Alpha =  109.471   Beta  =  109.471   Gamma =  109.471
     NFFT1 =   64       NFFT2 =   64       NFFT3 =   64
     Cutoff=    9.000   Tol   =0.100E-04
     Ewald Coefficient =  0.30768
     Interpolation order =    4

--------------------------------------------------------------------------------
   3.  ATOMIC COORDINATES AND VELOCITIES
--------------------------------------------------------------------------------

default_name
 begin time read from input coords =  5000.000 ps

 Number of triangulated 3-point waters found:     4270

     Sum of charges from parm topology file =  -0.00000007
     Forcing neutrality...

--------------------------------------------------------------------------------
   4.  RESULTS
 NSTEP =      500   TIME(PS) =    5001.000  TEMP(K) =   300.66  PRESS =   -83.2
 Etot   =    -35052.0809  EKtot   =      9122.9014  EPtot      =    -44174.9823
 BOND   =       369.7480  ANGLE   =      1089.0012  DIHED      =      1356.8911
 1-4 NB =       430.3948  1-4 EEL =      6115.9450  VDWAALS    =      4660.1875
 EELEC  =    -58197.1499  EHBOND  =         0.0000  RESTRAINT  =         0.0000
 EKCMT  =      3822.9000  VIRIAL  =      4085.9472  VOLUME     =    146443.3239
                                                    Density    =         1.0269
 ------------------------------------------------------------------------------

      A V E R A G E S   O V E R    5000 S T E P S

 NSTEP =  2500000   TIME(PS) =   10000.000  TEMP(K) =   301.11  PRESS =    -8.1
 Etot   =    -35075.2303  EKtot   =      9136.4400  EPtot      =    -44211.6703
 BOND   =       354.4432  ANGLE   =      1063.0655  DIHED      =      1343.5474
 1-4 NB =       444.0796  1-4 EEL =      6036.6757  VDWAALS    =      4858.6453
 EELEC  =    -58312.1271  EHBOND  =         0.0000  RESTRAINT  =         0.0000
 EKCMT  =      3847.3286  VIRIAL  =      3872.9333  VOLUME     =    146831.5882
                                                    Density    =         1.0242
 ------------------------------------------------------------------------------

      R M S  F L U C T U A T I O N S

 NSTEP =  2500000   TIME(PS) =   10000.000  TEMP(K) =     2.48  PRESS =   183.3
 Etot   =       138.3520  EKtot   =        75.3084  EPtot      =       108.7485
 BOND   =        15.6419  ANGLE   =        24.4652  DIHED      =        14.4088
 1-4 NB =         9.2057  1-4 EEL =        78.6991  VDWAALS    =        91.7174
 EELEC  =       178.2974  EHBOND  =         0.0000  RESTRAINT  =         0.0000
 EKCMT  =        47.6300  VIRIAL  =       582.7021  VOLUME     =       338.2667
                                                    Density    =         0.0024
 ------------------------------------------------------------------------------
