-------------------------------------------------------
          Amber 16 PMEMD                              2016
          -------------------------------------------------------

  [-O]verwriting output

File Assignments:

 Here is the input file:

Equilibration without solute restrictions
&cntrl
imin = 0,                           ! No Minimization
nmropt = 0,                         ! No NMR restraints read

! Nature and format of the input
ntx = 5,                            ! Coordinates and velocities will be read
irest = 1,                          ! Do not run a new simulation

! Nature and format of the output
ntxo = 1,                           ! rstrt file in ASCII format
ntpr = 500,                         ! inf in output every ntpr steps
ntwr = 500,                         ! rstrt file every ntwr steps
ntwx = 500,                         ! mdcrd file every ntwx steps
ntwv = 0,                           ! mdvel without velocities
ntwe = 0,                           ! Energies and temperatures not written in
idecomp = 0,                        ! No energy decomposition
iwrap = 1,                          ! Coordinates of the restart and mdcrd file

! Frozen or restrained atoms
ibelly = 0,                         ! No frozen atoms
ntr=0,                              ! Harmonic potential restraints

! Molecular dynamics
nstlim = 980000,                    ! Number of MD-steps
dt = 0.002,                         ! Time step

! Temperature regulation
ntt = 3,                            ! Langevin thermostat
gamma_ln = 2,                       ! Gamma constant for Langevin
temp0 = 300.0,                      ! Reference T at which the system is to be
tempi = 300.0,                      ! Initial T
ig = -1,                            ! Seed for the RNG

! P and V regulation
ntp = 1,                            ! constant P
barostat = 1,                       ! Berendsen barostat
taup = 1,                           ! Pressure relaxation time
ntb = 2,                            ! Periodic box for constant P

! SHAKE variables
ntc = 2,                            ! Bonds involving H are constrained
ntf = 2,                            ! Bond interaction involving H are ommited.

cut = 9.0,                          ! Nonbonded cutoff
/
&end

Note: ig = -1. Setting random seed to   381321 based on wallclock time in
      microseconds.

--------------------------------------------------------------------------------
   1.  RESOURCE   USE:
--------------------------------------------------------------------------------

 getting new box info from bottom of inpcrd
 NATOM  =   16335 NTYPES =      18 NBONH =   15379 MBONA  =     965
 NTHETH =    2359 MTHETA =    1297 NPHIH =    4508 MPHIA  =    3273
 NHPARM =       0 NPARM  =       0 NNB   =   30176 NRES   =    4896
 NBONA  =     965 NTHETA =    1297 NPHIA =    3273 NUMBND =      52
 NUMANG =     106 NPTRA  =      43 NATYP =      35 NPHB   =       1
 IFBOX  =       2 NMXRS  =      24 IFCAP =       0 NEXTRA =       0
 NCOPY  =       0

     BOX TYPE: TRUNCATED OCTAHEDRON

--------------------------------------------------------------------------------
   2.  CONTROL  DATA  FOR  THE  RUN
--------------------------------------------------------------------------------

default_name

General flags:
     imin    =       0, nmropt  =       0

Nature and format of input:
     ntx     =       5, irest   =       1, ntrx    =       1

Nature and format of output:
     ntxo    =       1, ntpr    =     500, ntrx    =       1, ntwr    =     500
     iwrap   =       1, ntwx    =     500, ntwv    =       0, ntwe    =       0
     ioutfm  =       1, ntwprt  =       0, idecomp =       0, rbornstat=      0

Potential function:
     ntf     =       2, ntb     =       2, igb     =       0, nsnb    =      25
     ipol    =       0, gbsa    =       0, iesp    =       0
     dielc   =   1.00000, cut     =   9.00000, intdiel =   1.00000

Frozen or restrained atoms:
     ibelly  =       0, ntr     =       0

Molecular dynamics:
     nstlim  =    980000, nscm    =      1000, nrespa  =         1
     t       =   0.00000, dt      =   0.00200, vlimit  =  -1.00000

Langevin dynamics temperature regulation:
     ig      =  381321
     temp0   = 300.00000, tempi   = 300.00000, gamma_ln=   2.00000

Pressure regulation:
     ntp     =       1
     pres0   =   1.00000, comp    =  44.60000, taup    =   1.00000

SHAKE:
     ntc     =       2, jfastw  =       0
     tol     =   0.00001

Ewald parameters:
     verbose =       0, ew_type =       0, nbflag  =       1, use_pme =       1
     vdwmeth =       1, eedmeth =       1, netfrc  =       1
     Box X =   62.641   Box Y =   62.641   Box Z =   62.641
     Alpha =  109.471   Beta  =  109.471   Gamma =  109.471
     NFFT1 =   64       NFFT2 =   64       NFFT3 =   64
     Cutoff=    9.000   Tol   =0.100E-04
     Ewald Coefficient =  0.30768
     Interpolation order =    4

--------------------------------------------------------------------------------
   3.  ATOMIC COORDINATES AND VELOCITIES
--------------------------------------------------------------------------------

default_name
 begin time read from input coords =  3040.000 ps

 Number of triangulated 3-point waters found:     4775

     Sum of charges from parm topology file =  -0.00000006
     Forcing neutrality...

--------------------------------------------------------------------------------
   4.  RESULTS
 NSTEP =      500   TIME(PS) =    3041.000  TEMP(K) =   302.58  PRESS =  -397.5
 Etot   =    -38143.8675  EKtot   =     10109.5117  EPtot      =    -48253.3792
 BOND   =       372.3044  ANGLE   =      1065.5419  DIHED      =      1339.7854
 1-4 NB =       435.4460  1-4 EEL =      6286.3984  VDWAALS    =      5647.3698
 EELEC  =    -63400.2252  EHBOND  =         0.0000  RESTRAINT  =         0.0000
 EKCMT  =      4269.2121  VIRIAL  =      5859.1110  VOLUME     =    185250.9042
                                                    Density    =         0.8948
 ------------------------------------------------------------------------------

      A V E R A G E S   O V E R    1960 S T E P S

 NSTEP =   980000   TIME(PS) =    5000.000  TEMP(K) =   299.99  PRESS =     0.6
 Etot   =    -39103.2240  EKtot   =     10022.8613  EPtot      =    -49126.0852
 BOND   =       357.1675  ANGLE   =      1071.9220  DIHED      =      1351.3839
 1-4 NB =       449.1439  1-4 EEL =      6308.3344  VDWAALS    =      5634.8769
 EELEC  =    -64298.9139  EHBOND  =         0.0000  RESTRAINT  =         0.0000
 EKCMT  =      4286.2080  VIRIAL  =      4284.7119  VOLUME     =    161837.5293
                                                    Density    =         1.0243
 ------------------------------------------------------------------------------

      R M S  F L U C T U A T I O N S

 NSTEP =   980000   TIME(PS) =    5000.000  TEMP(K) =     2.32  PRESS =   188.1
 Etot   =       141.4729  EKtot   =        77.6245  EPtot      =       116.3339
 BOND   =        15.9624  ANGLE   =        25.0626  DIHED      =        13.9732
 1-4 NB =         9.2467  1-4 EEL =        24.0674  VDWAALS    =        99.1776
 EELEC  =       165.4405  EHBOND  =         0.0000  RESTRAINT  =         0.0000
 EKCMT  =        50.7424  VIRIAL  =       660.6153  VOLUME     =      1276.0119
                                                    Density    =         0.0074
 ------------------------------------------------------------------------------
